

 <GENCASE4>  Copyright (C) 2018 by Dr Jose M. Dominguez
 All rights reserved.

 DualSPHysics is an international collaboration between University of Vigo 
 (Spain) and University of Manchester (UK). 

 Redistribution and use in source and binary forms, with or without
 modification, are permitted provided that the following conditions
 are met:
 * Redistributions of source code must retain the above copyright
   notice, this list of conditions and the following disclaimer.
 * Redistributions in binary form must reproduce the above copyright
   notice, this list of conditions and the following disclaimer in the
   documentation and/or other materials provided with the distribution.
 * Neither the name of the DualSPHysics nor the names of its contributors
   may be used to endorse or promote products derived from this software
   without specific prior written permission.

 THIS SOFTWARE IS PROVIDED BY THE COPYRIGHT HOLDERS AND CONTRIBUTORS "AS IS"
 AND ANY EXPRESS OR IMPLIED WARRANTIES, INCLUDING, BUT NOT LIMITED TO, THE
 IMPLIED WARRANTIES OF MERCHANTABILITY AND FITNESS FOR A PARTICULAR PURPOSE
 ARE DISCLAIMED. IN NO EVENT SHALL THE COPYRIGHT OWNER BE LIABLE FOR ANY
 DIRECT, INDIRECT, INCIDENTAL, SPECIAL, EXEMPLARY, OR CONSEQUENTIAL DAMAGES
 (INCLUDING, BUT NOT LIMITED TO, PROCUREMENT OF SUBSTITUTE GOODS OR SERVICES;
 LOSS OF USE, DATA, OR PROFITS; OR BUSINESS INTERRUPTION) HOWEVER CAUSED AND
 ON ANY THEORY OF LIABILITY, WHETHER IN CONTRACT, STRICT LIABILITY, OR TORT
 (INCLUDING NEGLIGENCE OR OTHERWISE) ARISING IN ANY WAY OUT OF THE USE OF
 THIS SOFTWARE, EVEN IF ADVISED OF THE POSSIBILITY OF SUCH DAMAGE. 


GenCase4 v4.0.079 (16-10-2018) 
================================
OmpThreads: 8

[LoadXML]
List: MAIN

Total operations: 74
[LoadXML-End  time:0.001s]

[Draw]
Mk size: 1 bytes
Case limits: (0.0001,0,-1.2) - (10.7999,0,1.05)
Distance between points: 0.007
Case domain: (0,0,0)-(1541,0,320)
Domain points: 1542 x 1 x 321 = 494982
Case parts: 1 x 321z
Memory: 0.00Gb 0.47Mb (494982)

> MAIN
FileShapes> _Dp.vtk  shapes:134593  points:5324   (time:0.009s)
<MAIN (Operations= 59+15+1 = 75)

Triangles: 9250612 (9091717 ignored)
[Draw-End  time:2.925s]

[PreparePoints]
Computing Vtk-Cells data...  (time:0.004s)
BitSizeTot: 24 (3 + 11+1+9)
Points loaded: 494755
Sorting points by Z...
Sorting points by Mk...

List of Points:
Points -> Fixed-Boundary particles:
  block[  0] (mk: 11):  79311  -->   79311
  block[  1] (mk: 12):  46648  -->   46648
Points -> Moving-Boundary particles:
  block[  2] (mk: 13):   2725  -->    2725
Points -> Fluid particles:
  block[  3] (mk:  1):  10642  -->   10642
  block[  4] (mk:  2): 136073  -->  136073
  block[  5] (mk:  3): 219356  -->  219356

Particle summary:
  Fixed....: 125959  id:(0-125958)   MKs:2 (11-12)
  Moving...: 2725  id:(125959-128683)   MKs:1 (13)
  Floating.: 0
  Fluid....: 366071  id:(128684-494754)   MKs:3 (1-3)

Total particles: 494755 (bound=128684 (fx=125959 mv=2725 ft=0) fluid=366071)
Total MK blocks: 6 (bound=3 (fx=2 mv=1 ft=0) fluid=3)

Maximum depth: 2.198 (automatic)
Speed of system: 4.64353 (automatic)
Speed of sound: max(coefsound*speedsystem,10*sqrt(g*depth))
Speed of sound: 92.8706 max(92.8706,46.4353)

Coefh:0.919240 (hdp:1.300002)

[PreparePoints-End  time:0.034s]

[SaveCase2D]
GenCase4_linux64_MkCells.vtk  (time:0.000s, shapes:815, points:3260)
GenCase4_linux64.bi4<double>  (time:0.082s)
GenCase4_linux64.xml  (time:0.001s)

Save files time: 0.083s
[SaveCase2D-End  time:0.092s]

